/*--------------------------------*- C++ -*----------------------------------*\
| =========                 |                                                 |
| \\      /  F ield         | OpenFOAM: The Open Source CFD Toolbox           |
|  \\    /   O peration     | Version:  v2406                                 |
|   \\  /    A nd           | Website:  www.openfoam.com                      |
|    \\/     M anipulation  |                                                 |
\*---------------------------------------------------------------------------*/
FoamFile
{
    version     2.0;
    format      ascii;
    class       dictionary;
    location    "constant";
    object      fvOptions;
}
// * * * * * * * * * * * * * * * * * * * * * * * * * * * * * * * * * * * * * //

// NOTE: fvOptions constraints below are DISABLED (active=no)
// They reference a 'substrate' cellZone that is not defined in the mesh
// To enable these constraints, you would need to:
//   1. Create a topoSetDict defining the substrate cellZone
//   2. Run topoSet to create the zone
//   3. Set active=yes below

/*
substrateFixedVelocity
{
    type            vectorFixedValueConstraint;
    active          no;
    selectionMode   cellZone;
    cellZone        substrate;

    fieldValues
    {
        U   (0 0 0);
    }
}

substrateFixedTemperature
{
    type            scalarFixedValueConstraint;
    active          no;
    selectionMode   cellZone;
    cellZone        substrate;

    fieldValues
    {
        //T   500;
    }
}
*/

// ************************************************************************* //
