/*--------------------------------*- C++ -*----------------------------------*\
| =========                 |                                                 |
| \\      /  F ield         | OpenFOAM: The Open Source CFD Toolbox           |
|  \\    /   O peration     | Version:  v2406                                 |
|   \\  /    A nd           | Website:  www.openfoam.com                      |
|    \\/     M anipulation  |                                                 |
\*---------------------------------------------------------------------------*/
FoamFile
{
    version     2.0;
    format      ascii;
    class       dictionary;
    location    "constant";
    object      fvOptions;
}
// * * * * * * * * * * * * * * * * * * * * * * * * * * * * * * * * * * * * * //

substrateFixedVelocity
{
    type            fixedVelocity;
    active          yes;
    selectionMode   cellZone;
    // Apply to the substrate cell zone defined in topoSet
    cellZone        substrate;
    fields
    {
        U   (0 0 0);
    }
}


// ************************************************************************* //
