/*--------------------------------*- C++ -*----------------------------------*\
| =========                 |                                                 |
| \\      /  F ield         | OpenFOAM: The Open Source CFD Toolbox           |
|  \\    /   O peration     | Version:  v2406                                 |
|   \\  /    A nd           | Website:  www.openfoam.com                      |
|    \\/     M anipulation  |                                                 |
\*---------------------------------------------------------------------------*/
FoamFile
{
    version     2.0;
    format      ascii;
    class       dictionary;
    location    "system";
    object      controlDict;
}
// * * * * * * * * * * * * * * * * * * * * * * * * * * * * * * * * * * * * * //

application     compInterFoam;

startFrom       startTime;
startTime       0;
stopAt          endTime;
endTime         5e-8;               // extend into tens of nanoseconds

deltaT          1e-15;
adjustTimeStep  yes;
maxCo           0.2;
maxAlphaCo      0.2;
maxDeltaT       5e-12;            // allow growth after pulse

writeControl    runTime;
writeInterval   1e-9;              // write every 1 ns of simulated time
purgeWrite      100;               // retain a broader history
writeFormat     binary;
writePrecision  10;
writeCompression on;
timeFormat      general;
timePrecision   12;
fileHandler     collated;

runTimeModifiable yes;

dynamicFvMesh   dynamicRefineFvMesh;

dynamicRefineFvMeshCoeffs
{
    field            alpha.metal;
    refineInterval   1;
    lowerRefineLevel 0.05;
    upperRefineLevel 0.98;
    unrefineLevel    0.001;
    nBufferLayers    1;
    maxRefinement    3;
    maxCells         4000000;
    correctFluxes    (phi none);
}
// solver switches (kept as in your file)
useAdvancedInterfaceCapturing  true;
enableTClamp                   true;
minT                           250;
maxT                           8000;

minPressure                    100;
maxPressure                    5e7;
maxVelocity                    3000;
minRAUf                        1e-12;
maxRAUf                        1e8;
twoTemperatureProperties
{
    Ce  2.5e6;
    Cl  3.5e6;
    G   3.0e16;
    energyTol 0.1; // relative energy change tolerance
}

functions
{
    fieldWrite
    {
        type              writeObjects;
        libs              ("libutilityFunctionObjects.so");
        objects           (Q_laser U p_rgh T alpha.metal);
        writeOnExecution  true;
    }

    probesTTM
    {
        type            probes;
        libs            ("libsampling.so");
        fields          (Te Tl T p_rgh U alpha.metal);
        probeLocations  ((0 0 0) (0 0 2e-6) (0 0 10e-6));
        writeControl    timeStep;
        writeInterval   5;       // tighter probes for ultrafast features
    }

    CourantNo
    {
        type CourantNo; libs ("libutilityFunctionObjects.so");
        writeControl timeStep; writeInterval 5;
    }

    fieldMinMax_T
    {
        type fieldMinMax; libs ("libfieldFunctionObjects.so");
        writeControl timeStep; writeInterval 5; fields (T);
    }

    fieldMinMax_alpha
    {
        type fieldMinMax; libs ("libfieldFunctionObjects.so");
        writeControl timeStep; writeInterval 5; fields (alpha.metal);
    }

    
}



