/*--------------------------------*- C++ -*----------------------------------*\
| =========                 |                                                 |
| \\      /  F ield         | OpenFOAM: The Open Source CFD Toolbox           |
|  \\    /   O peration     | Version:  v2406                                 |
|   \\  /    A nd           | Website:  www.openfoam.com                      |
|    \\/     M anipulation  |                                                 |
\*---------------------------------------------------------------------------*/
FoamFile
{
    version     2.0;
    format      ascii;
    class       dictionary;
    location    "system";
    object      controlDict;
}
// * * * * * * * * * * * * * * * * * * * * * * * * * * * * * * * * * * * * * //

application     compInterFoam;

startFrom       latestTime;
startTime       0;
stopAt          endTime;
endTime         2e-9;           // Observation window through plume relaxation

deltaT          1e-16;         // Base time step (1 fs)
adjustTimeStep  yes;           // ENABLE adaptive time stepping
maxCo           0.05;          // Relaxed slightly to avoid needless clipping
maxAlphaCo      0.01;          // Allow modest interface Courant growth
maxDeltaT       5e-15;         // Permit limited step growth when flow is calm
minDeltaT       5e-17;         // Keep floor above numerical noise threshold

verbose         true;
thermalFluxRelax 0.1;          // Stronger damping of interface heat flux
maxThermalCourant 0.001;         // Tightened for thermal stability

// ADAPTIVE OUTPUT - more frequent during active phase, less during cooling
writeControl    adjustableRunTime;
writeInterval   1e-14;         // Start with 0.1 ps intervals to reduce churn
purgeWrite      50;            // Keep more time directories for analysis
writeFormat     ascii;
writePrecision  8;
writeCompression off;
timeFormat      general;
timePrecision   8;             // Increased precision for longer runs
fileHandler     uncollated;

runTimeModifiable yes;
enableLiftProcessTracker true;

// EXTENDED PHASE-CHANGE - longer activation for complete process
phaseChangeCoeffs
{
    model               clausius_clapeyron;  // Not temperature window!
    hf                  [0 2 -2 0 0 0 0] 9.1e6;   // J/kg (Ti vaporisation)
    Tsol                [0 0 0 1 0 0 0] 1941;     // K
    Tvap                [0 0 0 1 0 0 0] 3560;     // K
    
    // Kinetic theory parameters
    stickingCoeff       0.18;     // Ti evaporation coefficient
    momentumAccom       0.18;     // Momentum accommodation
    
    //windowWidth         100;
    dtFloor             1e-15;         // Reduced for precision
    relaxationTime      5e-12;        // Faster response for femtosecond dynamics
    maxSource           1e9;          // Allow sufficient heating-driven mass transfer
    minCoefficient      1e7;          // Reduced for gradual cooling
    onlyAboveVapor      false;
    metalFractionCutoff 1e-6;
    // EXTENDED ACTIVATION - through transfer and cooling
    activationTime      ((0 4e-10));  // Active through 400 ps as intended
}

// EXTENDED MASS TRANSFER - through solidification
massTransferCoeffs
{
    tStart  (0);
    tEnd    (4e-10);   // Active through 400 ps
    rateMax 1e11;      // Reduced for later phase stability
}

// LASER TIMING - shorter pulse, longer observation
laserStartTime      0;
laserEndTime    2e-10;

// Advanced interface capturing - TUNED FOR EXTENDED SIMULATION
useAdvancedInterfaceCapturing  true;
advancedInterfaceCapturing
{
    model               kinetic_theory;  // Not arbitrary scaling!
    stickingCoeff       0.18;
    momentumAccom       0.18;
    recoilMax             5e8;      // ✅ REDUCE from 1e7 (5 MPa max)
    clampRecoil           true;
    scaleRecoilMax        false;    // ✅ DISABLE scaling (let physics control it)
    recoilTempOffset      100;      // ✅ INCREASE from 20 (smoother activation)
    phaseChangeTempOffset 100;      // ✅ INCREASE from 20
    recoilRelax           0.3;      // ✅ INCREASE from 0.1 (more damping)
    alphaMin              0.05;
    alphaMax              1;
    maxPhysicalTemperature 5000;
        // Physical limits
    maxRecoilPressure   1e9;    // 100 MPa absolute max
}
logRecoilSuppression true;

// Temperature clamping - EXTENDED RANGE
enableTClamp    true;
minT            200;           // Allow cooling below room temp
maxT            8000;          // Clamp high temperatures in line with lattice limit

// Two-temperature model properties - OPTIMIZED FOR EXTENDED RUNS
twoTemperatureProperties
{
    
    // Linear electronic heat capacity: Ce = γTe
    Ce
    {
        type        polynomial;
        value       0;
        coeffs
        (
            (0   0)  // Constant term = 0
            (630 1)  // Linear term: Ce = 630 · Te [J/m³/K²]
        );
    }
    
    // Temperature-dependent coupling
    G
    {
        type        table;
        values
        (
            (300     3e17)      // Room temperature
            (1000    1e18)      // 3.3× increase (weak coupling regime)
            (2000    2e18)      // Linear scaling begins
            (3000    3e18)      // Strong coupling regime
            (5000    5e18)      // 16× total
            (7000    7e18)      // Continues scaling
            (10000   1e19)      // 33× total
            (15000   1.5e19)    // 50× total
            (20000   2e19)      // Upper limit
        );
    }
    
    Cl  [1 -1 -2 -1 0 0 0] 2.5e6;
    De  [0  2 -1  0 0 0 0] 1e-4;

    gasMetalExchangeCoeff
    {
        type        kapitza;    // Use acoustic mismatch model
        Z_metal     2.3e7;      // Ti acoustic impedance [Pa·s/m]
        Z_gas       383;        // Ar acoustic impedance [Pa·s/m]
    }
    minGasMetalExchangeCoeff [1 -1 -3 -1 0 0 0] 0;
    maxGasMetalExchangeCoeff [1 -1 -3 -1 0 0 0] 1e13;
    maxGasMetalHeatFlux    1e7;   // Surface heat flux cap [W/m²]
    
    // ✅ ADJUSTED: Allow higher lattice temperatures now that coupling works
    minTe           200;
    maxTe           25000;      // 🔥 Increased from 20000 (electrons can go hotter)
    maxTl           15000;       // 🔥 Increased from 8000 (will see plasma temps)
    ambientTemperature 300;
    temperatureDifferenceFloor 10.0;                     // Guard against Te/Tl collapse
    
    // ADAPTIVE MICRO-STEPPING
    electronSubCycles        4;
    minElectronSubCycles     2;
    maxElectronSubCycles     20;     // Allow rapid transients
    maxElectronDeltaT        [0 0 1 0 0 0 0] 1e-15;  // Guard rapid transients

    nInnerCouplingSweeps         3;  // More coupling iterations
    innerCouplingResidualTol     1e-4; // Enable convergence check
    
    klHighTThreshold 1000;
    klExponent       0.5;

    metalFractionFloor      1e-6;
    metalFractionCutoff     1e-6;
    metalAmbientBlendWidth  1e-3;
    CvolGasFloor    1e6;  // J/m^3/K floor for gas cells

    energyTolerance         0.05;    // Relaxed for long runs
    energyDiagnostics       true;
    temperatureDiagnostics  true;   // Reduce output volume
    energyAudit             true;
}

// Clean monitoring functions
functions
{
    // Mid-plane visualization (optional)
    midPlaneVTK
    {
        type            surfaces;
        libs            ("libsampling.so");
        writeControl    writeTime;
        writeInterval   1;
        surfaceFormat   vtk;
        fields          (alpha.metal Tl Te T p_rgh U);

        surfaces
        (
            midPlane
            {
                type                cuttingPlane;
                planeType           pointAndNormal;
                pointAndNormalDict
                {
                    point   (25e-6 2.00357e-05 5e-6);
                    normal  (0 1 0);
                }
                interpolate         true;
            }
        );
    }
}
