/*--------------------------------*- C++ -*----------------------------------*\
| =========                 |                                                 |
| \\      /  F ield         | OpenFOAM: The Open Source CFD Toolbox           |
|  \\    /   O peration     | Version:  2406                                  |
|   \\  /    A nd           | Website:  www.openfoam.com                      |
|    \\/     M anipulation  |                                                 |
\*---------------------------------------------------------------------------*/
FoamFile
{
    version     2.0;
    format      ascii;
    arch        "LSB;label=32;scalar=64";
    class       polyBoundaryMesh;
    location    "constant/polyMesh";
    object      boundary;
}
// * * * * * * * * * * * * * * * * * * * * * * * * * * * * * * * * * * * * * //

6
(
    top
    {
        type            wall;
        inGroups        1(wall);
        nFaces          500;
        startFace       14050;
    }
    bottom
    {
        type            wall;
        inGroups        1(wall);
        nFaces          500;
        startFace       14550;
    }
    inlet
    {
        type            wall;
        inGroups        1(wall);
        nFaces          200;
        startFace       15050;
    }
    outlet
    {
        type            wall;
        inGroups        1(wall);
        nFaces          200;
        startFace       15250;
    }
    front
    {
        type            wall;
        inGroups        1(wall);
        nFaces          250;
        startFace       15450;
    }
    back
    {
        type            wall;
        inGroups        1(wall);
        nFaces          250;
        startFace       15700;
    }
)

// ************************************************************************* //
