/*--------------------------------*- C++ -*----------------------------------*\
| =========                 |                                                 |
| \\      /  F ield         | OpenFOAM: The Open Source CFD Toolbox           |
|  \\    /   O peration     | Version:  v2406                                 |
|   \\  /    A nd           | Website:  www.openfoam.com                      |
|    \\/     M anipulation  |                                                 |
\*---------------------------------------------------------------------------*/
FoamFile
{
    version     2.0;
    format      ascii;
    class       dictionary;
    object      thermophysicalProperties.metal;
}
// * * * * * * * * * * * * * * * * * * * * * * * * * * * * * * * * * * * * * //

// METAL PHASE PROPERTIES for LIFT Test Case
thermoType
{
    type            heRhoThermo;
    mixture         pureMixture;
    transport       const;
    thermo          hConst;
    equationOfState rhoConst;       // Constant density for basic test
    specie          specie;
    energy          sensibleEnthalpy;
}

mixture
{
    specie
    {
        molWeight       47.867;         // kg/kmol - Titanium molecular weight
    }
    
    thermodynamics
   {
        Cp              560;            // J/kg·K - Heat capacity
        Hf              0.0;            // J/kg - Heat of formation
        Tref            300;            // K - Reference temperature
        Href            0;              // J/kg - Reference enthalpy
    }
    
    transport
    {
        mu              2.25e-3;        // Pa·s - Dynamic viscosity
        Pr              0.03;           // Prandtl number (liquid metals)
    }
    
    equationOfState
    {
        rho             4515;           // kg/m³ - Titanium density
    }
}

// LIFT-specific properties
Tsol                1941.0;             // K - Solidus temperature
Tliq                1941.0;             // K - Liquidus temperature
Tvap                3560.0;             // K - Vaporisation temperature
hf                  3.65e5;              // J/kg - Latent heat of fusion
kappa               17.2;               // W/m·K - Thermal conductivity

// ************************************************************************* //
