/*--------------------------------*- C++ -*----------------------------------*\\
| =========                 |                                                 |
| \\      /  F ield         | OpenFOAM: The Open Source CFD Toolbox           |
|  \\    /   O peration     | Version:  v2406                                 |
|   \\  /    A nd           | Website:  www.openfoam.com                      |
|    \\/     M anipulation  |                                                 |
\\*---------------------------------------------------------------------------*/
FoamFile
{
    version     2.0;
    format      ascii;
    class       dictionary;
    location    "constant";
    object      transportProperties;
}
// * * * * * * * * * * * * * * * * * * * * * * * * * * * * * * * * * * * * * //

phases (metal air);

metal
{
    transportModel  Newtonian;
    nu              nu [ 0 2 -1 0 0 0 0 ] 5e-7;
    rho             rho [ 1 -3 0 0 0 0 0 ] 4515;
}

air
{
    transportModel  Newtonian;
    nu              nu [ 0 2 -1 0 0 0 0 ] 1.48e-5;
    rho             rho [ 1 -3 0 0 0 0 0 ] 1.2;
}

meltingTemperature      meltingTemperature [0 0 0 1 0 0 0] 1941.0;
vaporTemperature        vaporTemperature [0 0 0 1 0 0 0] 3560.0;
latentHeat              latentHeat [0 2 -2 0 0 0 0] 3.65e5;

sigma           sigma [ 1 0 -2 0 0 0 0 ] 1.64;

cAlpha          cAlpha [0 0 0 0 0 0 0] 1;
icAlpha         icAlpha [0 0 0 0 0 0 0] 0;
scAlpha         scAlpha [0 0 0 0 0 0 0] 0;
phaseChangeCoeffs
{
    model          temperatureWindow;
    Tsolidus       1941;
    Tliquidus      1941;
    Tvapor         3560;
    windowWidth    50;
    onlyAboveMelt  true;
    onlyAboveVapor true;
    // ((start1 end1) (start2 end2) ...)
    // 214-fs pulse window from Nguyen (2022) Activation windows corresponding to each laser pulse
    activationTime ((0 2.14e-13));
}
massTransferCoeffs
{
    model     timeAndTemperatureWindow;
    // Start and end times for mass transfer during each pulse
    // Entire 214-fs laser pulse duration
    tStart    (0);          // pulse onset
    tEnd      (2.14e-13);   // 214 fs pulse width
    // Temperatures from Table 12 of Nguyen (2022)
    Tsolidus  1941;
    Tvapor    3560;
    rateMax   0;          // solver computes only inside the window
}
// ************************************************************************* //
