/*--------------------------------*- C++ -*----------------------------------*\\
| =========                 |                                                 |
| \\      /  F ield         | OpenFOAM: The Open Source CFD Toolbox           |
|  \\    /   O peration     | Version:  v2406                                 |
|   \\  /    A nd           | Website:  www.openfoam.com                      |
|    \\/     M anipulation  |                                                 |
\\*---------------------------------------------------------------------------*/
FoamFile
{
    version     2.0;
    format      ascii;
    class       dictionary;
    location    "constant";
    object      transportProperties;
}
// * * * * * * * * * * * * * * * * * * * * * * * * * * * * * * * * * * * * * //

phases (metal air);

metal
{
    transportModel  Newtonian;
    nu              nu [ 0 2 -1 0 0 0 0 ] 5e-7;
    rho             rho [ 1 -3 0 0 0 0 0 ] 4515;
}

air
{
    transportModel  Newtonian;
    nu              nu [ 0 2 -1 0 0 0 0 ] 1.48e-5;
    rho             rho [ 1 -3 0 0 0 0 0 ] 1.2;
}
sigma           sigma [1 0 -2 0 0 0 0] 0.06; 

cAlpha          cAlpha [0 0 0 0 0 0 0] 1;
icAlpha         icAlpha [0 0 0 0 0 0 0] 0;
scAlpha         scAlpha [0 0 0 0 0 0 0] 0;
// Example latent-heat source term specification
    phaseChangeCoeffs
    {
        model          temperatureWindow;
        Tvapor         3560;      // or your value
        windowWidth    300;       // smoothing band [K]
        dtFloor        1e-12;     // floor for time-step regularisation
        minCoefficient 1e7;      // optional cap on |phaseChangeSource| [K/s]
        onlyAboveVapor false;     // allow both melt/condense logic
        // Activation window for laser pulse
        activationTime ((0 1e-11));
    }
massTransferCoeffs
{
    // Mass transfer derived from phase-change energy:
    // dgdt = -(Cl*phaseChangeSource)/latentHeat
    // Optional activation window
    tStart    (0);
    tEnd      (1e-11);

    // Optional upper bound on |dgdt| [1/s]
    rateMax   1e8;
}
// ************************************************************************* //
