/*--------------------------------*- C++ -*----------------------------------*\
| =========                 |                                                 |
| \\      /  F ield         | OpenFOAM: The Open Source CFD Toolbox           |
|  \\    /   O peration     | Version:  v2406                                 |
|   \\  /    A nd           | Website:  www.openfoam.com                      |
|    \\/     M anipulation  |                                                 |
\*---------------------------------------------------------------------------*/
FoamFile
{
    version     2.0;
    format      ascii;
    class       dictionary;
    location    "system";
    object      fvSchemes;
}
// * * * * * * * * * * * * * * * * * * * * * * * * * * * * * * * * * * * * * //

ddtSchemes
{
    default          Euler;              // First-order for stability
    ddt(alpha)       Euler;              // Compatible with your alphaEqn.H
    ddt(rho,U)       Euler;              // Momentum equation
    ddt(rho)         Euler;              // Continuity equation
}

gradSchemes
{
    default           Gauss linear;
    grad(p_rgh)       Gauss linear;
    grad(p)           Gauss linear;
    grad(alpha.metal) Gauss linear;
    grad(alpha.air)   Gauss linear;
    grad(alpha)       Gauss linear;
    grad(U)           Gauss linear;
    grad(T)           Gauss linear;
    grad(Te)          Gauss linear;
    grad(Tl)          Gauss linear;
}

divSchemes
{
    default                          Gauss linear;

    // Interface transport - make more stable
    div(phi,alpha)                   Gauss vanLeer;        // CHANGE: was vanLeer
    div(phir,alpha)                  Gauss interfaceCompression;           // CHANGE: was interfaceCompression
    div(phi,alpha.metal)             Gauss vanLeer01;        // CHANGE: was vanLeer
    div(phir,alpha.metal)            Gauss interfaceCompression;           // CHANGE: was interfaceCompression
    div(phi,alpha.air)               Gauss vanLeer01;        // CHANGE: was vanLeer

    // Keep other schemes as they are - they look good
    div(rhoPhi,U)                    Gauss linearUpwindV grad(U);
    div(phi,T)                       Gauss limitedLinear 1.0;
    div(phi,Te)                      Gauss limitedLinear 1.0;
    div(phi,Tl)                      Gauss limitedLinear 1.0;
    
    // Add these for safety
    div(phi,p_rgh)                   Gauss upwind;           // CHANGE: was linear
    div(((rho*nuEff)*dev2(T(grad(U))))) Gauss linear;
}

laplacianSchemes
{
    default                          Gauss linear corrected;

    laplacian((1|A(U)),p_rgh)        Gauss linear corrected;
    laplacian(rAU,p_rgh)             Gauss linear corrected;
    laplacian(rAUf,p_rgh) 	     Gauss linear corrected;
    laplacian((1|A(U)),p)            Gauss linear corrected;

    laplacian(nuEff,U)               Gauss linear corrected;
    laplacian((rho*nuEff),U)         Gauss linear corrected;

    laplacian(alphaEff,T)            Gauss linear corrected;
    laplacian(kappaEff,T)            Gauss linear corrected;
    laplacian(kappa,T)               Gauss linear corrected;

    laplacian(ke,Te)                 Gauss linear corrected;
    laplacian(kl,Tl)                 Gauss linear corrected;
}

interpolationSchemes
{
    default                 linear;
    interpolate(alpha.metal) linear;
    interpolate(alpha.air)   linear;
    interpolate(alpha)       linear;

    interpolate(rho)         linear;
    interpolate(mu)          linear;
    interpolate(kappa)       linear;

    interpolate(Te)          linear;
    interpolate(Tl)          linear;
    interpolate(ke)          linear;
    interpolate(kl)          linear;

    interpolate((1|A(U)))    linear;
    interpolate(rAU)         linear;
}

snGradSchemes
{
    default                 corrected;
    snGrad(p_rgh)           corrected;
    snGrad(p)               corrected;
    snGrad(T)               corrected;
    snGrad(Te)              corrected;
    snGrad(Tl)              corrected;
    snGrad(alpha.metal)     corrected;
    snGrad(alpha)           corrected;
}
wallDist
{
    method          meshWave;
}

fluxRequired
{
    default         no;
    p_rgh           yes;
    alpha.metal     yes;
    alpha.air       yes;
    alpha           yes;
}

