/*--------------------------------*- C++ -*----------------------------------*\
| =========                 |                                                 |
| \\      /  F ield         | OpenFOAM: The Open Source CFD Toolbox           |
|  \\    /   O peration     | Version:  v2406                                 |
|   \\  /    A nd           | Website:  www.openfoam.com                      |
|    \\/     M anipulation  |                                                 |
\*---------------------------------------------------------------------------*/
FoamFile
{
    version     2.0;
    format      ascii;
    class       dictionary;
    location    "system";
    object      fvSchemes;
}
// * * * * * * * * * * * * * * * * * * * * * * * * * * * * * * * * * * * * * //

ddtSchemes
{
    default          localEuler;              // First-order for stability
    ddt(alpha)       localEuler;              // Compatible with your alphaEqn.H
    ddt(rho,U)       localEuler;              // Momentum equation
    ddt(rho)         localEuler;              // Continuity equation
}

gradSchemes
{
    default           Gauss linear;
    grad(p_rgh)       Gauss linear;
    grad(p)           Gauss linear;
    grad(alpha.metal) Gauss linear;
    grad(alpha.air)   Gauss linear;
    grad(alpha)       Gauss linear;
    grad(U)           Gauss linear;
    grad(T)           Gauss linear;
    grad(Te)          Gauss linear;
    grad(Tl)          Gauss linear;
}

divSchemes
{
default                          Gauss linear;

    // Interface transport (used by your alphaEqn)
    div(phi,alpha)                   Gauss vanLeer;
    div(phir,alpha)                  Gauss interfaceCompression;

    // Per-phase aliases (kept consistent)
    div(phi,alpha.metal)             Gauss vanLeer;
    div(phir,alpha.metal)            Gauss interfaceCompression;
    div(phi,alpha.air)               Gauss vanLeer;

    // Momentum
    div(rhoPhi,U)                    Gauss linearUpwindV grad(U);
    div(phi,U)                       Gauss linearUpwindV grad(U);
    div(phi,p_rgh)                   Gauss linear;

    // Temperatures: keep peaks (don’t upwind Te/Tl)
    div(phi,T)                       Gauss limitedLinear 1.0;
    div(phi,Te)                      Gauss limitedLinear 1.0;
    div(phi,Tl)                      Gauss limitedLinear 1.0;

    // Energy odds & ends
    div(phi,K)                       Gauss linear;
    div(phi,h)                       Gauss limitedLinear 1.0;
    div(phi,e)                       Gauss limitedLinear 1.0;

    // Viscous stress
    div(((rho*nuEff)*dev2(T(grad(U))))) Gauss linear;
    div((nuEff*dev2(T(grad(U)))))       Gauss linear;

    // Turbulence (only if you enable it)
    div(phi,k)                       Gauss limitedLinear 1.0;
    div(phi,epsilon)                 Gauss limitedLinear 1.0;
    div(phi,omega)                   Gauss limitedLinear 1.0;

    // Two-temperature diffusion hooks used by your code
    div((alphaEff*grad(T)))          Gauss linear;
    div((ke*grad(Te)))               Gauss linear;
    div((kl*grad(Tl)))               Gauss linear;
}

laplacianSchemes
{
    default                          Gauss linear corrected;

    laplacian((1|A(U)),p_rgh)        Gauss linear corrected;
    laplacian(rAU,p_rgh)             Gauss linear corrected;
    laplacian((1|A(U)),p)            Gauss linear corrected;

    laplacian(nuEff,U)               Gauss linear corrected;
    laplacian((rho*nuEff),U)         Gauss linear corrected;

    laplacian(alphaEff,T)            Gauss linear corrected;
    laplacian(kappaEff,T)            Gauss linear corrected;
    laplacian(kappa,T)               Gauss linear corrected;

    laplacian(ke,Te)                 Gauss linear corrected;
    laplacian(kl,Tl)                 Gauss linear corrected;
}

interpolationSchemes
{
    default                 linear;
    interpolate(alpha.metal) linear;
    interpolate(alpha.air)   linear;
    interpolate(alpha)       linear;

    interpolate(rho)         linear;
    interpolate(mu)          linear;
    interpolate(kappa)       linear;

    interpolate(Te)          linear;
    interpolate(Tl)          linear;
    interpolate(ke)          linear;
    interpolate(kl)          linear;

    interpolate((1|A(U)))    linear;
    interpolate(rAU)         linear;
}

snGradSchemes
{
    default                 corrected;
    snGrad(p_rgh)           corrected;
    snGrad(p)               corrected;
    snGrad(T)               corrected;
    snGrad(Te)              corrected;
    snGrad(Tl)              corrected;
    snGrad(alpha.metal)     corrected;
    snGrad(alpha)           corrected;
}
wallDist
{
    method          meshWave;
}

fluxRequired
{
    default         no;
    p_rgh           yes;
    alpha.metal     yes;
    alpha.air       yes;
    alpha           yes;
}

