/*--------------------------------*- C++ -*----------------------------------*\\
| =========                 |                                                 |
| \\      /  F ield         | OpenFOAM: The Open Source CFD Toolbox           |
|  \\    /   O peration     | Version:  v2406                                 |
|   \\  /    A nd           | Website:  www.openfoam.com                      |
|    \\/     M anipulation  |                                                 |
\\*---------------------------------------------------------------------------*/
FoamFile
{
    version     2.0;
    format      ascii;
    class       dictionary;
    location    "system";
    object      topoSetDict;
}
// * * * * * * * * * * * * * * * * * * * * * * * * * * * * * * * * * * * * * //
actions
(
  // Focus/jet region (meters)
  { name focusBox; type cellSet; action new; source boxToCell;
        sourceInfo
    {
      // x: [1.708333e-5, 3.291667e-5]  (82..158)*Δx
      // y: [8.0000e-6,  2.00714e-5]    (block boundaries; within domain)
      // z: [0,         1.0e-5]         (unchanged)
      box (1.708333e-05 8.0000e-06 0)
          (3.291667e-05 2.00714e-05 1.0e-05);
    }
}
  // Substrate only below the Ti film: y ∈ [0, 8.0000 µm]
  { name substrateSet; type cellSet; action new; source boxToCell;
    sourceInfo { box (0 0 0) (5.0e-5 8.0000e-6 1.0e-5); } }
  { name substrate; type cellZoneSet; action new; source setToCellZone;
    sourceInfo { set substrateSet; } }
);
// ************************************************************************* //
