/*--------------------------------*- C++ -*----------------------------------*\
| =========                 |                                                 |
| \\      /  F ield         | OpenFOAM: The Open Source CFD Toolbox           |
|  \\    /   O peration     | Version:  v2406                                 |
|   \\  /    A nd           | Website:  www.openfoam.com                      |
|    \\/     M anipulation  |                                                 |
\*---------------------------------------------------------------------------*/
FoamFile
{
    version     2.0;
    format      ascii;
    class       dictionary;
    location    "system";
    object      controlDict;
}
// * * * * * * * * * * * * * * * * * * * * * * * * * * * * * * * * * * * * * //

application     compInterFoam;

startFrom       latestTime;
startTime       0;
stopAt          endTime;
endTime         5e-10;          // Extend to 50 ps total

deltaT          6e-13;         // Base time step
adjustTimeStep  no;
maxCo           0.5;
maxAlphaCo      0.5;
maxDeltaT       5e-10;         // Cap at 50 ps
minDeltaT       5e-15;         // Allow reduction to 5 fs

verbose         true;

maxThermalCourant 0.9;

// Output control
writeControl    runTime;
writeInterval   5e-13;          // Write every 0.5 ps
purgeWrite      10;            // Keep only last 10 time directories
writeFormat     ascii;
writePrecision  8;             // Reduced from 12
writeCompression off;
timeFormat      general;
timePrecision   6;
fileHandler     uncollated;

runTimeModifiable yes;

// Advanced interface capturing
useAdvancedInterfaceCapturing  true;
advancedInterfaceCapturing
{
    // Pa·s as a plain number (code wraps units internally)
    pressureScale         5e6;        // try 5e6–1e7 for LIFT

    // Pa cap as a plain number
    recoilMax             5e8;

    clampRecoil           true;
    scaleRecoilMax        true;

    // Temperature offsets (K)
    recoilTempOffset      100;        // activate recoil ~100 K above Tvap
    phaseChangeTempOffset 50;         // small buffer around Tvap

    // 0–1 smoothing
    recoilRelax           0.7;

    // Interface window (narrower than defaults)
    alphaMin              0.05;
    alphaMax              0.95;

    // Optional
    // meltingTemperature [0 0 0 1 0 0 0] 1941;
    // vaporTemperature   [0 0 0 1 0 0 0] 3560;
}
// Top-level (optional) — enables a note about suppressed condensation cells
logRecoilSuppression true;

// Temperature clamping
enableTClamp    true;
minT            250;
maxT            8000;

// Two-temperature model properties
twoTemperatureProperties
{
    // Required (scalar or Function1 dict)
    Ce  [1 -1 -2 -1 0 0 0] 1.5e6;      // J/m3/K
    Cl  [1 -1 -2 -1 0 0 0] 2.5e6;      // J/m3/K
    G   [1 -1 -3 -1 0 0 0] 5e17;       // W/m3/K
    De  [0  2 -1  0 0 0 0] 1e-4;       // m2/s

    gasMetalExchangeCoeff [1 -1 -3 -1 0 0 0] 1e14;  // W/m3/K
    minGasMetalExchangeCoeff [1 -1 -3 -1 0 0 0] 0;
    maxGasMetalExchangeCoeff [1 -1 -3 -1 0 0 0] 1e17;

    // Bounds (used for both Te and Tl)
    minTe 300;
    maxTe 15000;
    ambientTemperature 300;

    // Micro-stepping (optional)
    electronSubCycles        1;      // base plan
    minElectronSubCycles     1;
    maxElectronSubCycles     20;
    maxElectronDeltaT        2e-13;  // s (e.g., cap electron substep ~200 fs)

    // Inner coupling (optional)
    nInnerCouplingSweeps         1;
    innerCouplingResidualTol     -1; // disabled (set e.g. 1e-3 to enforce)

    // Conductivity correction (optional)
    klHighTThreshold 1000;    // K
    klExponent       0.5;     // 0 disables

    // Masking/smoothing (optional)
    metalFractionFloor      1e-6;
    metalFractionCutoff     1e-6;
    metalAmbientBlendWidth  1e-3;

    // Energy diagnostics
    energyTolerance         0.01;    // or energyTol
    energyDiagnostics       false;
    temperatureDiagnostics  true;
    energyAudit             false;
}

// Clean monitoring functions
functions
{
    // Main LIFT monitoring
    liftMonitor
    {
        type            coded;
        libs            ("libutilityFunctionObjects.so");
        name            liftMonitor;
        writeControl    timeStep;
        writeInterval   20;

        codeWrite
        #{
            const scalar t = mesh().time().value();
            const volScalarField& Te = mesh().lookupObject<volScalarField>("Te");
            const volScalarField& Tl = mesh().lookupObject<volScalarField>("Tl");
            const volScalarField& T = mesh().lookupObject<volScalarField>("T");
            const volScalarField& alpha = mesh().lookupObject<volScalarField>("alpha.metal");
            const volScalarField& p_rgh = mesh().lookupObject<volScalarField>("p_rgh");
            const volScalarField& rho = mesh().lookupObject<volScalarField>("rho");
            const volScalarField& gh = mesh().lookupObject<volScalarField>("gh");
            const volScalarField& QLaser = mesh().lookupObject<volScalarField>("Q_laser");
            tmp<volScalarField> tp(p_rgh + rho*gh);
            const volScalarField& p = tp();
            const volVectorField& U = mesh().lookupObject<volVectorField>("U");
            
            const volScalarField& recoilP = mesh().lookupObject<volScalarField>("recoilPressure");

            // Max values
            const scalar maxTe = gMax(Te);
            const scalar maxTl = gMax(Tl);
            const scalar maxTgas = gMax(T);
            const scalar maxRecoil = gMax(recoilP);
            const scalar maxQLaser = gMax(QLaser);
            
            // Metal volume
            const scalarField alphaVol = alpha.primitiveField() * mesh().V();
            const scalar metalVol = gSum(alphaVol);
            const scalar metalVolUm3 = metalVol * 1e18; // Convert to μm³
            
            // Pressure peaks
            const scalar maxPressure = gMax(p);
            const scalar minPressure = gMin(p);
            
            // Ejection velocity (max velocity in metal regions)
            scalar maxEjectionVel = 0.0;
            const scalarField& alphaInternal = alpha.primitiveField();
            const vectorField& UInternal = U.primitiveField();
            
            forAll(alphaInternal, cellI)
            {
                if (alphaInternal[cellI] > 0.1) // Metal-rich cells
                {
                    const scalar velMag = mag(UInternal[cellI]);
                    maxEjectionVel = max(maxEjectionVel, velMag);
                }
            }
            
            // Reduce across processors
            reduce(maxEjectionVel, maxOp<scalar>());
            
            // Validation flags
            word teStatus = "OK";
            if (maxTe < 300) teStatus = "LOW";
            else if (maxTe > 15000) teStatus = "HIGH";
            
            word tlStatus = "OK";
            if (maxTl < 300) tlStatus = "LOW";
            else if (maxTl > 8000) tlStatus = "HIGH";
            
            word pStatus = "OK";
            if (maxPressure > 1e9) pStatus = "HIGH";
            else if (maxPressure < 1e3) pStatus = "LOW";
            
            word velStatus = "OK";
            if (maxEjectionVel > 2000) velStatus = "HIGH";
            else if (maxEjectionVel < 0.1 && maxTl > 2000) velStatus = "LOW";
            
            const scalar startT = mesh().time().startTime().value();
            const scalar endT = mesh().time().endTime().value();
            scalar progress = 0.0;
            if (endT > startT)
            {
                progress = (t - startT)/(endT - startT);
                progress = min(max(progress, 0.0), 1.0);
            }

            // Enhanced output with laser status
            Info<< "LIFT: t=" << t*1e12 << "ps"
                << " progress=" << progress*100 << "%"
                << " QLaser=" << maxQLaser/1e12 << "TW/m³"
                << " Te=" << maxTe << "K[" << teStatus << "]"
                << " Tl=" << maxTl << "K[" << tlStatus << "]"
                << " Tgas=" << maxTgas << "K"
                << " MetalVol=" << metalVolUm3 << "μm³"
                << " Pmax=" << maxPressure/1e6 << "MPa[" << pStatus << "]"
                << " Pmin=" << minPressure/1e6 << "MPa"
                << " Vmax=" << maxEjectionVel << "m/s[" << velStatus << "]"
                << " Recoil=" << maxRecoil/1e6 << "MPa" << endl;
                
            // Detailed validation warnings
            if (teStatus != "OK" || tlStatus != "OK" || pStatus != "OK" || velStatus != "OK")
            {
                Info<< "WARNING: Values outside typical LIFT ranges detected!" << endl;
            }
            
            // Laser activity warning
            if (t <= 4e-11 && maxQLaser < 1e6) // Should be active during pulse
            {
                Info<< "WARNING: Laser source very low during expected active period!" << endl;
            }
        #};
    }

    // CSV output for post-processing
    csvOutput
    {
        type            coded;
        libs            ("libutilityFunctionObjects.so");
        name            csvOutput;
        writeControl    timeStep;
        writeInterval   10;

        codeWrite
        #{
            static bool headerWritten = false;
            const scalar t = mesh().time().value();
            
            const volScalarField& Te = mesh().lookupObject<volScalarField>("Te");
            const volScalarField& Tl = mesh().lookupObject<volScalarField>("Tl");
            const volScalarField& T = mesh().lookupObject<volScalarField>("T");
            const volScalarField& alpha = mesh().lookupObject<volScalarField>("alpha.metal");
            const volScalarField& p_rgh = mesh().lookupObject<volScalarField>("p_rgh");
            const volScalarField& rho = mesh().lookupObject<volScalarField>("rho");
            const volScalarField& gh = mesh().lookupObject<volScalarField>("gh");
            const volScalarField& QLaser = mesh().lookupObject<volScalarField>("Q_laser");
            tmp<volScalarField> tp(p_rgh + rho*gh);
            const volScalarField& p = tp();
            const volVectorField& U = mesh().lookupObject<volVectorField>("U");
            
            // Fix API calls
            const scalar maxTe = gMax(Te);
            const scalar maxTl = gMax(Tl);
            const scalar maxTgas = gMax(T);
            const scalar maxQLaser = gMax(QLaser);
            const scalarField alphaVol = alpha.primitiveField() * mesh().V();
            const scalar metalVol = gSum(alphaVol) * 1e18;
            const scalar maxP = gMax(p);
            const scalar minP = gMin(p);
            
            // Ejection velocity
            scalar maxVel = 0.0;
            const scalarField& alphaInternal = alpha.primitiveField();
            const vectorField& UInternal = U.primitiveField();
            
            forAll(alphaInternal, cellI)
            {
                if (alphaInternal[cellI] > 0.1)
                {
                    maxVel = max(maxVel, mag(UInternal[cellI]));
                }
            }
            reduce(maxVel, maxOp<scalar>());
            
            // Write CSV
            if (Pstream::master())
            {
                OFstream csvFile
                (
                    "liftResults.csv",
                    IOstreamOption::ASCII,
                    IOstreamOption::UNCOMPRESSED,
                    IOstreamOption::APPEND
                );
                if (!headerWritten)
                {
                    csvFile << "time_ps,Te_max_K,Tl_max_K,Tgas_max_K,metal_vol_um3,max_pressure_Pa,min_pressure_Pa,max_velocity_ms,laser_power_Wm3" << endl;
                    headerWritten = true;
                }
                csvFile << t*1e12 << "," << maxTe << "," << maxTl << "," << maxTgas 
                        << "," << metalVol << "," << maxP << "," << minP << "," << maxVel 
                        << "," << maxQLaser << endl;
            }
        #};
    }

    // Phase transition milestones
    milestones
    {
        type            coded;
        libs            ("libutilityFunctionObjects.so");
        name            milestones;
        writeControl    timeStep;
        writeInterval   1;

        codeWrite
        #{
            const scalar t = mesh().time().value();
            const volScalarField& Tl = mesh().lookupObject<volScalarField>("Tl");
            const volScalarField& QLaser = mesh().lookupObject<volScalarField>("Q_laser");
            const scalar maxTl = gMax(Tl);
            const scalar maxQLaser = gMax(QLaser);
            
            static bool meltHit = false;
            static bool vapHit = false;
            static bool laserStarted = false;
            
            if (!laserStarted && maxQLaser > 1e6) // Laser activation
            {
                Info<< "*** LASER ACTIVATED at t=" << t*1e12 << "ps, Q=" << maxQLaser/1e12 << "TW/m³ ***" << endl;
                laserStarted = true;
            }
            
            if (!meltHit && maxTl > 1941.0) // Ti melting point
            {
                Info<< "*** MELTING at t=" << t*1e12 << "ps, Tl=" << maxTl << "K ***" << endl;
                meltHit = true;
            }
            
            if (!vapHit && maxTl > 3560.0) // Ti vaporization
            {
                Info<< "*** VAPORIZATION at t=" << t*1e12 << "ps, Tl=" << maxTl << "K ***" << endl;
                vapHit = true;
            }
        #};
    }


    // Mid-plane visualization (optional)
    midPlaneVTK
    {
        type        sampledSurface;
        libs        ("libsampling.so");
        surfaceType cuttingPlane;
        planeType   pointAndNormal;
        pointAndNormalDict { point (25e-6 0 5e-6); normal (0 1 0); }
        fields      (alpha.metal Tl Te T p_rgh U);
        interpolate true;
        format      vtk;
        writeControl writeTime;
        writeInterval 1;
    }

    // Comprehensive LIFT validation summary
    liftValidation
    {
        type            coded;
        libs            ("libutilityFunctionObjects.so");
        name            liftValidation;
        writeControl    timeStep;
        writeInterval   100;

        codeWrite
        #{
            const scalar t = mesh().time().value();
            const volScalarField& Te = mesh().lookupObject<volScalarField>("Te");
            const volScalarField& Tl = mesh().lookupObject<volScalarField>("Tl");
            const volScalarField& alpha = mesh().lookupObject<volScalarField>("alpha.metal");
            const volScalarField& p_rgh = mesh().lookupObject<volScalarField>("p_rgh");
            const volScalarField& rho = mesh().lookupObject<volScalarField>("rho");
            const volScalarField& gh = mesh().lookupObject<volScalarField>("gh");
            tmp<volScalarField> tp(p_rgh + rho*gh);
            const volScalarField& p = tp();
            const volVectorField& U = mesh().lookupObject<volVectorField>("U");
            
            const scalar maxTe = gMax(Te);
            const scalar maxTl = gMax(Tl);
            const scalar maxP = gMax(p);
            
            // Calculate metal loss
            const scalarField alphaVol = alpha.primitiveField() * mesh().V();
            const scalar currentMetalVol = gSum(alphaVol) * 1e18; // μm³
            static scalar initialMetalVol = currentMetalVol; // First call
            const scalar metalLoss = (initialMetalVol - currentMetalVol) / initialMetalVol * 100;
            
            // Calculate ejection velocity
            scalar maxVel = 0.0;
            const scalarField& alphaInternal = alpha.primitiveField();
            const vectorField& UInternal = U.primitiveField();
            
            forAll(alphaInternal, cellI)
            {
                if (alphaInternal[cellI] > 0.1)
                {
                    maxVel = max(maxVel, mag(UInternal[cellI]));
                }
            }
            reduce(maxVel, maxOp<scalar>());
            
            Info<< "=== LIFT VALIDATION SUMMARY at t=" << t*1e12 << "ps ===" << endl;
            Info<< "Temperature Assessment:" << endl;
            Info<< "  Te_max: " << maxTe << "K (Expected: 300-15000K)" << endl;
            Info<< "  Tl_max: " << maxTl << "K (Expected: 300-8000K)" << endl;
            Info<< "  Phase: ";
            if (maxTl < 1941) Info<< "SOLID";
            else if (maxTl < 3560) Info<< "LIQUID"; 
            else Info<< "VAPOR";
            Info<< endl;
            
            Info<< "Pressure Assessment:" << endl;
            Info<< "  P_max: " << maxP/1e6 << "MPa (Expected: 0.1-1000MPa)" << endl;
            Info<< "  Status: ";
            if (maxP < 1e5) Info<< "LOW - Check recoil pressure";
            else if (maxP > 1e9) Info<< "HIGH - May indicate instability";
            else Info<< "NORMAL";
            Info<< endl;
            
            Info<< "Dynamics Assessment:" << endl;
            Info<< "  Max velocity: " << maxVel << "m/s (Expected: 1-2000m/s)" << endl;
            Info<< "  Metal loss: " << metalLoss << "% (Expected: 0.1-10%)" << endl;
            Info<< "  Status: ";
            if (maxVel < 1 && maxTl > 2000) Info<< "LOW - Check momentum transfer";
            else if (maxVel > 2000) Info<< "HIGH - Check numerical stability";
            else Info<< "NORMAL";
            Info<< endl;
            
            Info<< "Overall Assessment: ";
            bool isGood = (maxTe > 1000 && maxTe < 15000) && 
                         (maxTl > 1000 && maxTl < 8000) &&
                         (maxP > 1e5 && maxP < 1e9) &&
                         (maxVel > 1 && maxVel < 2000);
            if (isGood) Info<< "SIMULATION ON TRACK";
            else Info<< "CHECK PARAMETERS";
            Info<< endl;
            Info<< "=============================================" << endl;
        #};
    }
}
