/*--------------------------------*- C++ -*----------------------------------*\
| =========                 |                                                 |
| \\      /  F ield         | OpenFOAM: The Open Source CFD Toolbox           |
|  \\    /   O peration     | Version:  v2406                                 |
|   \\  /    A nd           | Website:  www.openfoam.com                      |
|    \\/     M anipulation  |                                                 |
\*---------------------------------------------------------------------------*/
FoamFile
{
    version     2.0;
    format      ascii;
    class       dictionary;
    object      blockMeshDict;
}
// * * * * * * * * * * * * * * * * * * * * * * * * * * * * * * * * * * * * * //

scale 1e-6; // coordinates in micrometers

// REDUCED MESH CONFIGURATION (2x reduction factor)
// =================================================
// Original total cells: 5,632,000
// Reduced total cells:    704,000 (~87.5% reduction)
//
// CORRECTED LIFT GEOMETRY (bottom to top):
// y0 = 0.0000     - Substrate (receiver) bottom
// y1 = 8.0000     - Substrate top / Air gap bottom
// y2 = 20.0000    - Air gap top / Ti film bottom
// y3 = 20.0714    - Ti film top (71.4 nm thick)
// y4 = 32.0714    - Donor glass top

vertices
(
    // y0 = 0.0000 (substrate/receiver bottom)
    (0   0.0000  0)  (50  0.0000  0)  (50  0.0000 10)  (0   0.0000 10)

    // y1 = 8.0000 (substrate top / air gap bottom)
    (0   8.0000  0)  (50  8.0000  0)  (50  8.0000 10)  (0   8.0000 10)

    // y2 = 20.0000 (air gap top / Ti film bottom)
    (0  20.0000  0)  (50 20.0000  0)  (50 20.0000 10)  (0  20.0000 10)

    // y3 = 20.0714 (Ti film top) - 71.4 nm thick film
    (0  20.0714  0)  (50 20.0714  0)  (50 20.0714 10)  (0  20.0714 10)

    // y4 = 32.0714 (donor glass top)
    (0  32.0714  0)  (50 32.0714  0)  (50 32.0714 10)  (0  32.0714 10)
);

blocks
(
    //                y-low face       y-high face        Nx   Ny   Nz   grading
    hex ( 0  3  2  1   4  7  6  5)   ( 40 200  20)  simpleGrading (1 1 1)  // Substrate (receiver)
    hex ( 4  7  6  5   8 11 10  9)   ( 40 200  30)  simpleGrading (1 1 1)  // Air gap (12 µm)
    hex ( 8 11 10  9  12 15 14 13)   ( 40 200   8)  simpleGrading (1 1 1)  // Ti film (71.4 nm, thin layer)
    hex (12 15 14 13  16 19 18 17)   ( 40 200  30)  simpleGrading (1 1 1)  // Donor glass (12 µm)
);

edges ();

boundary
(
    // Symmetry planes (external boundaries only)
    left          { type symmetryPlane; faces ((0 3 7 4)(4 7 11 8)(8 11 15 12)(12 15 19 16)); }
    right         { type symmetryPlane; faces ((1 5 6 2)(5 9 10 6)(9 13 14 10)(13 17 18 14)); }
    front         { type symmetryPlane; faces ((0 4 5 1)(4 8 9 5)(8 12 13 9)(12 16 17 13)); }
    back          { type symmetryPlane; faces ((3 2 6 7)(7 6 10 11)(11 10 14 15)(15 14 18 19)); }

    // CORRECTED: Substrate at bottom, donor at top (external faces only)
    substrate     { type wall;  faces ((0 3 2 1)); }      // BOTTOM - receiver substrate
    donor         { type wall;  faces ((16 17 18 19)); }   // TOP - transparent donor substrate
);

mergePatchPairs();

// ************************************************************************* //
// MESH STATISTICS (2x reduction)
// ===============================
// Cell counts per block:
//   Substrate:    40 × 200 × 20 =   160,000 cells
//   Air gap:      40 × 200 × 30 =   240,000 cells
//   Ti film:      40 × 200 × 8  =    64,000 cells
//   Donor glass:  40 × 200 × 30 =   240,000 cells
//   ------------------------------------------------
//   TOTAL:                          704,000 cells
//
// Approximate cell sizes:
//   X-direction: 50 µm / 40 cells = 1.25 µm/cell
//   Y-direction: varies by layer
//     - Substrate:   8.0 µm / 200 cells = 40 nm/cell
//     - Air gap:     12.0 µm / 200 cells = 60 nm/cell
//     - Ti film:     0.0714 µm / 200 cells = 0.357 nm/cell
//     - Donor glass: 12.0 µm / 200 cells = 60 nm/cell
//   Z-direction: 10 µm / varies by layer
//     - Substrate:   10 µm / 20 cells = 500 nm/cell
//     - Air gap:     10 µm / 30 cells = 333 nm/cell
//     - Ti film:     10 µm / 8 cells = 1.25 µm/cell
//     - Donor glass: 10 µm / 30 cells = 333 nm/cell
// ************************************************************************* //
