/*--------------------------------*- C++ -*----------------------------------*\
| =========                 |                                                 |
| \\      /  F ield         | OpenFOAM: The Open Source CFD Toolbox           |
|  \\    /   O peration     | Version:  v2406                                 |
|   \\  /    A nd           | Website:  www.openfoam.com                      |
|    \\/     M anipulation  |                                                 |
\*---------------------------------------------------------------------------*/
FoamFile
{
    version     2.0;
    format      ascii;
    class       dictionary;
    location    "system";
    object      fvSolution;
}
// * * * * * * * * * * * * * * * * * * * * * * * * * * * * * * * * * * * * * //

solvers
{
    "alpha.*"
    {
        solver          PBiCGStab;
        preconditioner  DILU;
        tolerance       1e-12;
        relTol          0.0;
        maxIter         100;
        minIter         2;
        
    // CRITICAL FOR EJECTION:
    nAlphaCorr      5;           // ✓ Good
    nAlphaSubCycles 5;           // ✓ Good - resolves fast interface motion
    
    // ADD THIS for better jet tracking:
    cAlpha          0.8;         // Reduce from 1.0 → sharper interface
    MULESCorr       true;        // ✓ Good
    nLimiterIter    5;           // ✓ Good
    
    // NEW: Improved interface compression for jet
    icAlpha         1;           // Enable implicit compression
    scAlpha         1;           // Enable semi-implicit compression
    
        compressionLimiter  1.0;
        alphaApplyPrevCorr true;
        sharpeningScheme standard;
        thinFilmCoeff   0.0;
    }

    p_rgh
    {
        solver          GAMG;
        smoother        GaussSeidel;     // Changed from DICGaussSeidel for better convergence
        tolerance       1e-6; 
        relTol          0.01;
        maxIter         50;
        nPreSweeps      1;
        nPostSweeps     2;
        cacheAgglomeration true;
        nCellsInCoarsestLevel 10;
        agglomerator    faceAreaPair;
        mergeLevels     1;
        relaxationFactor 0.7;
    }

    p_rghFinal
    {
        $p_rgh;
        tolerance   1e-6;
        relTol      0;
    }
    
    "U.*"
   {
            solver      smoothSolver;
            smoother    symGaussSeidel;
            nSweeps     2;
            tolerance   1e-06;
            relTol      0.5;
            maxIter     200;
            minIter     1;
    }

    T
    {
        solver          smoothSolver;
        smoother        symGaussSeidel;
        nSweeps         6;
        tolerance       1e-8;
        relTol          0.01;             // Allow 1% relative convergence
        maxIter         1000;             // Increased iteration limit
        minIter         3;                // Ensure minimum work
    }

    TFinal
    {
        $T;
        tolerance       1e-9;
        relTol          0;
        maxIter         1000;
    }

    Te
    {
         solver          smoothSolver;
        smoother        symGaussSeidel;
        nSweeps         6;
        tolerance       1e-8;
        relTol          0;
        maxIter         1000;
        minIter         3;
    }

    Tl
    {
        solver          smoothSolver;
        smoother        symGaussSeidel;
        nSweeps         6;
        tolerance       1e-8;
        relTol          0;
        maxIter         1000;
        minIter         3;
    }
}

PIMPLE
{
    momentumPredictor           true;
    nOuterCorrectors            20;          // Increased from 10 for multi-GPa recoil convergence
    nCorrectors                 3;
    nNonOrthogonalCorrectors    2;

    residualControl
    {
        "alpha.*" { tolerance 1e-7;  relTol 0.0; }
        p_rgh     { tolerance 1e-3;  relTol 0.1; }  // Tightened tolerance
        U         { tolerance 5e-4;  relTol 0.1; }
        Te        { tolerance 1e-6;  relTol 0.02; }   // thermal is stiff; be stricter
        Tl        { tolerance 1e-6;  relTol 0.02;  }
        T         { tolerance 1e-6;  relTol 0.05;  }   // if gas T exists
    }
    
    p_rghRefCell                0;
    p_rghRefValue               101325;
}

relaxationFactors
{
    fields
    {
        p_rgh           0.15; // CRITICAL: Reduced from 0.5 for multi-GPa recoil stability
        "alpha.*"       0.7;
    }
    equations
    {
        U               0.7;	 // Reduce from 0.5
        T               0.6;	// Increased from 0.5
        Te              0.7;	// Increased from 0.5 - allow faster electron temperature changes
        Tl              0.7;	// Increased from 0.5 - allow faster lattice temperature changes
        "alpha.*"       0.7;
        ".*Final"       0.9;
    }
}

// Pressure relaxation control
targetResP  0.5;

compInterFoamCoeffs
{
    // CRITICAL FIX: Remove artificial velocity clamping
    maxVelocity            0;         // DISABLED: was causing uniform 500 m/s field
    maxReasonableVelocity  800;       // Keep for validation warnings only
    // NOTE: Feinaeugle et al. (Appl. Surf. Sci. 418, 2017) report fs-LIFT recoil
    // peaks around 70–80 MPa.  Resolving that across the 71.4 nm film requires
    // |∇p| ≈ 1×10^15 Pa/m, so lift the limiter accordingly.
    maxPressureGradient    1e16;
        
    defaultMetalDensity    4500;        
    defaultAirDensity      1.2;         
    maxInitialResidual     10;

    // Interface clamp settings
    enableAlphaClamp  false;
    minAlpha          0.001;
    maxAlpha          0.999;

    // Clamp p_rgh to a physically defensible range so GAMG cannot run away.
    // Feinaeugle et al. observe Ti recoil plateaus close to 80 MPa, so keep the ceiling
    // above that to avoid throttling the kinetic-theory recoil driver.
    // Clamp p_rgh to prevent PIMPLE instability with multi-GPa recoil forcing
    // CRITICAL: With 28.5 GPa recoil, pressure solver overshoots to ±550 GPa without this
    // Set ceiling at 50 GPa to allow headroom above calculated recoil while preventing divergence
    pressureClamp      true;          // ENABLED to prevent ±550 GPa overshoot
    maxPressure        5.0e10;        // 50 GPa - allows 2× headroom above 28.5 GPa recoil
    minPressure       -5.0e10;        // Symmetric limit for negative pressures

    // Density clamp settings
    densityClamp       false;
    maxDensity         10000;
    minDensity         0.5;

    // RAU clamp settings  
    enableRAUClamp     false;
    minRAU             1e-10;
    maxRAU             1e6;
    minRAUf            1e-14;
    maxRAUf            1e6;

    // Diagonal safety (keep this)
    minUEqnDiag        1e-9;

    // RELAX RESIDUAL TARGETS
    targetResU         0.1;
    targetResP         0.5;
}
